data_global
_cell_length_a 6.51172
_cell_length_b 6.51172
_cell_length_c 13.418
_cell_angle_alpha 90
_cell_angle_beta 90
_cell_angle_gamma 120
_symmetry_space_group_name_H-M 'P -1'
loop_
_symmetry_equiv_pos_as_xyz
  'x,y,z'
loop_
_atom_site_label
_atom_site_fract_x
_atom_site_fract_y
_atom_site_fract_z
C 0 0 0
C 0.47619 0.0952381 0
C 0.714286 0.142857 0
C 0.190476 0.238095 0
C 0.428571 0.285714 0
C 0.904762 0.380952 0
C 0.142857 0.428571 0
C 0.619048 0.52381 0
C 0.857143 0.571429 0
C 0.333333 0.666667 0
C 0.571429 0.714286 0
C 0.047619 0.809524 0
C 0.285714 0.857143 0
C 0.761905 0.952381 0
C 1.56108e-32 -9.04106e-33 0.5
C 0.809524 0.047619 0.5
C 0.428571 0.142857 0.5
C 0.238095 0.190476 0.5
C 0.857143 0.285714 0.5
C 0.666667 0.333333 0.5
C 0.285714 0.428571 0.5
C 0.0952381 0.47619 0.5
C 0.714286 0.571429 0.5
C 0.52381 0.619048 0.5
C 0.142857 0.714286 0.5
C 0.952381 0.761905 0.5
C 0.571429 0.857143 0.5
C 0.380952 0.904762 0.5
